FoamFile {
    version     2.0;
    format      ascii;
    class       dictionary;
    object      blockMeshDict;
}

convertToMeters 1000; // effective units are km

vertices (
    (0 0 0)  // 0
    (8  0 0)  // 1
    (8  1 0)  // 2
    (0 1 0)  // 3
    (0 0 8) // 4
    (8  0 8) // 5
    (8  1 8) // 6
    (0 1 8) // 7
);

blocks (
	hex (0 1 2 3 4 5 6 7)
	    (64 1 64)
	    simpleGrading (1 1 1)
);

boundary (
	inlet {
		type patch;
		faces (
			(0 3 7 4)
		);
	}

	outlet {
		type patch;
		faces (
			(1 2 6 5)
		);
	}

	ground {
		type wall;
		faces (
			(0 1 2 3)
		);	
	}

	top {
		type wall;
		faces (
			(4 5 6 7)
		);
	}

	frontAndBack {
		type empty;
		faces (
			(0 1 5 4)
			(3 2 6 7)
		);
	}
);
