FoamFile {
    version     2.0;
    format      ascii;
    class       dictionary;
    location    "system";
    object      fvSchemes;
}

#include "commonFvSchemes"

divSchemes {
    default         none;
    div(phi,T)      Gauss cubicUpwindCPCFit 3;
}

gradSchemes {
    default         none;
    grad(T)         Gauss upwind phi;
}
