FoamFile {
    version     2.0;
    format      ascii;
    class       dictionary;
    location    "system";
    object      fvSchemes;
}

interpolationSchemes {
    default         none;
    interpolate(grad(Tf)) midPoint;
    interpolate(grad(Tf_0)) midPoint;
    T_from_b cubicUpwindCPCFit phi 3;
//    interpolate(grad(Tf)) cubicUpwindCPCFit phi 3;
}

divSchemes {
    default         none;
}

gradSchemes {
    default         none;
}

laplacianSchemes {
    default         none;
}

ddtSchemes {
    default         none;
}

fluxRequired {
    default         no;
    T;
}
