FoamFile
{
	version         1.4;
	format          ascii;

	root            "";
	case            "";
	instance        "constant";
	local           "";

	class           dictionary;
	object          gmtDict;
}

projection "X20c/8c";
projection2D XZ;
plotBoundaryDots false;

FieldsToPlot
(
    [Tf rawValues -1.1 1.1 0.1 "$GMTU/colours/red_white_blue.cpt"]
    [Tf_analyticf contours 0.1 1.0 0.1 "black"]
);

region "-100e3/100e3/0e3/20e3";
boundaryMarks "25e3/5e3WSen";
annotate "minMax 0.1 -0.1";
